Circuit: * D:\Desktop\Vlsi Lab\CIRCUIT & REPORT\OpAmp.asc

Direct Newton iteration for .op point succeeded.

Date: Wed Apr 06 01:10:20 2022
Total elapsed time: 0.131 seconds.

tnom = 27
temp = 27
method = trap
totiter = 29
traniter = 0
tranpoints = 0
accept = 0
rejected = 0
matrix size = 69
fillins = 2
solver = Normal
Matrix Compiler1:     457 opcodes
Matrix Compiler2: 8.33 KB object code size
